Version 4
SHEET 1 2600 1840
WIRE -608 48 -704 48
WIRE -496 48 -528 48
WIRE 352 112 272 112
WIRE 496 112 432 112
WIRE -528 144 -528 48
WIRE -336 144 -448 144
WIRE -192 144 -256 144
WIRE 1040 224 1040 160
WIRE -448 272 -448 144
WIRE -432 272 -448 272
WIRE -192 304 -192 144
WIRE -192 304 -272 304
WIRE -64 304 -192 304
WIRE 272 304 272 112
WIRE 272 304 224 304
WIRE 304 304 272 304
WIRE -432 336 -592 336
WIRE 496 336 496 112
WIRE 496 336 464 336
WIRE 528 336 496 336
WIRE 896 336 800 336
WIRE 1040 336 1040 304
WIRE 1040 336 960 336
WIRE 1232 336 1040 336
WIRE -592 368 -592 336
WIRE 304 368 208 368
WIRE 1232 368 1232 336
WIRE 208 416 208 368
WIRE 1232 480 1232 448
WIRE -416 656 -480 656
WIRE -256 656 -336 656
WIRE 336 688 272 688
WIRE 496 688 416 688
WIRE 1056 768 1056 704
WIRE -480 816 -480 656
WIRE -480 816 -512 816
WIRE -448 816 -480 816
WIRE -256 848 -256 656
WIRE -256 848 -288 848
WIRE -144 848 -256 848
WIRE 272 848 272 688
WIRE 272 848 240 848
WIRE 304 848 272 848
WIRE -448 880 -480 880
WIRE 496 880 496 688
WIRE 496 880 464 880
WIRE 608 880 496 880
WIRE 912 880 816 880
WIRE 1056 880 1056 848
WIRE 1056 880 976 880
WIRE 1248 880 1056 880
WIRE -480 912 -480 880
WIRE 304 912 272 912
WIRE 272 944 272 912
WIRE 1248 992 1248 960
WIRE -384 1200 -416 1200
WIRE -224 1200 -304 1200
WIRE -528 1376 -608 1376
WIRE -416 1376 -416 1200
WIRE -416 1376 -448 1376
WIRE -400 1376 -416 1376
WIRE -224 1408 -224 1200
WIRE -224 1408 -240 1408
WIRE -160 1408 -224 1408
WIRE -400 1440 -496 1440
WIRE -592 1616 -688 1616
WIRE -496 1616 -496 1440
WIRE -496 1616 -512 1616
WIRE -480 1616 -496 1616
FLAG -592 448 0
FLAG -400 224 +supply
FLAG -400 384 -supply
FLAG -64 304 VAC
FLAG 336 256 +supply
FLAG 144 304 0
FLAG 208 496 0
FLAG 336 416 -supply
FLAG 528 336 VDC
FLAG 1040 160 VDC
FLAG 800 336 VACinv
FLAG 1232 336 VOUTF1
FLAG 1056 704 VDCInv
FLAG 816 880 VACinv
FLAG 1248 880 VOUTF2
FLAG -416 768 +supply
FLAG -416 928 -supply
FLAG -592 816 VAC
FLAG -480 912 0
FLAG -144 848 VACInv
FLAG -592 336 Vin
FLAG -720 448 0
FLAG 336 800 +supply
FLAG 336 960 -supply
FLAG 160 848 VDC
FLAG 272 944 0
FLAG 608 880 VDCInv
FLAG -704 128 0
FLAG -416 48 0
FLAG 1248 992 0
FLAG 1232 480 0
FLAG -592 256 0
FLAG -736 704 +supply
FLAG -736 784 0
FLAG -736 928 -supply
FLAG -736 1008 0
FLAG -704 48 DAC1
FLAG 208 368 DAC2
FLAG -688 1376 0
FLAG -368 1328 +supply
FLAG -368 1488 -supply
FLAG -688 1696 0
FLAG -400 1616 0
FLAG -688 1616 offset
FLAG -160 1408 Vacinvtest
SYMBOL OpAmps/LTC6090-5 -368 304 R0
SYMATTR InstName U1
SYMBOL Voltage -592 352 R0
WINDOW 3 -115 130 Left 2
SYMATTR Value SINE(0.344 0.306 100)
SYMATTR InstName V1
SYMBOL voltage -704 32 R0
SYMATTR InstName V2
SYMATTR Value 0.688
SYMBOL Res -432 128 R90
WINDOW 0 0 56 VBottom 2
WINDOW 3 32 56 VTop 2
SYMATTR InstName R1
SYMATTR Value 10k
SYMBOL Res -240 128 R90
WINDOW 0 0 56 VBottom 2
WINDOW 3 32 56 VTop 2
SYMATTR InstName R2
SYMATTR Value 2.9Meg
SYMBOL OpAmps/LTC6090-5 368 336 R0
SYMATTR InstName U2
SYMBOL Res 240 288 R90
WINDOW 0 0 56 VBottom 2
WINDOW 3 32 56 VTop 2
SYMATTR InstName R3
SYMATTR Value 10k
SYMBOL Res 448 96 R90
WINDOW 0 0 56 VBottom 2
WINDOW 3 32 56 VTop 2
SYMATTR InstName R4
SYMATTR Value 172k
SYMBOL Voltage 208 400 R0
SYMATTR InstName V3
SYMATTR Value 1.67
SYMBOL Cap 960 320 R90
WINDOW 0 0 32 VBottom 2
WINDOW 3 32 32 VTop 2
SYMATTR InstName C1
SYMATTR Value 100µ
SYMBOL ind 1024 208 R0
SYMATTR InstName L1
SYMATTR Value 2.5
SYMBOL Cap 976 864 R90
WINDOW 0 0 32 VBottom 2
WINDOW 3 32 32 VTop 2
SYMATTR InstName C2
SYMATTR Value 32n
SYMBOL ind 1040 752 R0
SYMATTR InstName L2
SYMATTR Value 0.8
SYMBOL OpAmps/LTC6090-5 -384 848 R0
SYMATTR InstName U3
SYMBOL Res -496 800 R90
WINDOW 0 0 56 VBottom 2
WINDOW 3 32 56 VTop 2
SYMATTR InstName R5
SYMATTR Value 10k
SYMBOL Res -320 640 R90
WINDOW 0 0 56 VBottom 2
WINDOW 3 32 56 VTop 2
SYMATTR InstName R6
SYMATTR Value 10k
SYMBOL Voltage -720 352 R0
WINDOW 123 29 98 Left 2
SYMATTR Value2 AC 1
SYMATTR InstName V4
SYMATTR Value ""
SYMBOL OpAmps/LTC6090-5 368 880 R0
SYMATTR InstName U4
SYMBOL Res 256 832 R90
WINDOW 0 0 56 VBottom 2
WINDOW 3 32 56 VTop 2
SYMATTR InstName R7
SYMATTR Value 10k
SYMBOL Res 432 672 R90
WINDOW 0 0 56 VBottom 2
WINDOW 3 32 56 VTop 2
SYMATTR InstName R8
SYMATTR Value 10k
SYMBOL Res -512 32 R90
WINDOW 0 0 56 VBottom 2
WINDOW 3 32 56 VTop 2
SYMATTR InstName R9
SYMATTR Value 10k
SYMBOL Res -400 32 R90
WINDOW 0 0 56 VBottom 2
WINDOW 3 32 56 VTop 2
SYMATTR InstName R10
SYMATTR Value 10k
SYMBOL Res 1216 352 R0
SYMATTR InstName R11
SYMATTR Value 5k
SYMBOL Res 1232 864 R0
SYMATTR InstName R12
SYMATTR Value 5k
SYMBOL voltage -592 160 R0
SYMATTR InstName V5
SYMATTR Value 0.344
SYMBOL Voltage -736 688 R0
SYMATTR InstName V6
SYMATTR Value 60
SYMBOL Voltage -736 912 R0
SYMATTR InstName V7
SYMATTR Value -60
SYMBOL OpAmps/LTC6090-5 -336 1408 R0
SYMATTR InstName U5
SYMBOL Voltage -592 1376 R90
WINDOW 3 32 56 VTop 2
WINDOW 0 -32 56 VBottom 2
SYMATTR Value SINE(0.344 0.306 100)
SYMATTR InstName V8
SYMBOL Res -432 1360 R90
WINDOW 0 0 56 VBottom 2
WINDOW 3 32 56 VTop 2
SYMATTR InstName R13
SYMATTR Value 1k
SYMBOL Res -288 1184 R90
WINDOW 0 0 56 VBottom 2
WINDOW 3 32 56 VTop 2
SYMATTR InstName R14
SYMATTR Value 195k
SYMBOL voltage -688 1600 R0
SYMATTR InstName V9
SYMATTR Value 0.688
SYMBOL Res -496 1600 R90
WINDOW 0 0 56 VBottom 2
WINDOW 3 32 56 VTop 2
SYMATTR InstName R15
SYMATTR Value 10k
SYMBOL Res -384 1600 R90
WINDOW 0 0 56 VBottom 2
WINDOW 3 32 56 VTop 2
SYMATTR InstName R16
SYMATTR Value 10k
TEXT -768 528 Left 2 ;.step dec param f 1k 100k 1
TEXT 376 472 Left 2 ;.step param v 0 3.3 1.1
TEXT 1168 608 Left 2 ;.ac oct 100 1 10meg
TEXT -520 1048 Left 2 ;.step param r list 1k 5k 10k
TEXT -520 1088 Left 2 ;.step param r list 10k 50k 100k
TEXT 1168 656 Left 2 !.tran 100m
TEXT -760 560 Left 2 ;.step param f 10k 100k 10k
